------- BEAMDYN INDIVIDUAL BLADE INPUT FILE --------------------------
Generated with OpenFAST_IO
---------------------- BLADE PARAMETERS --------------------------------------
49                     station_total - Number of blade input stations (-)
1                      damp_type   - Damping type: 0: no damping; 1: damped
---------------------- DAMPING COEFFICIENT------------------------------------
    mu1         mu2         mu3         mu4         mu5         mu6    
    (-)         (-)         (-)         (-)         (-)         (-)    
 0.001000    0.001000    0.001000    0.001400    0.002200    0.002200  
---------------------- DISTRIBUTED PROPERTIES---------------------------------
 0.000000000000000e+00
 9.729480000000000e+08  0.000000000000000e+00  0.000000000000000e+00  0.000000000000000e+00  0.000000000000000e+00  0.000000000000000e+00
 0.000000000000000e+00  9.729480000000000e+08  0.000000000000000e+00  0.000000000000000e+00  0.000000000000000e+00  0.000000000000000e+00
 0.000000000000000e+00  0.000000000000000e+00  9.729480000000000e+09  0.000000000000000e+00  0.000000000000000e+00  0.000000000000000e+00
 0.000000000000000e+00  0.000000000000000e+00  0.000000000000000e+00  1.811360000000000e+10  0.000000000000000e+00  0.000000000000000e+00
 0.000000000000000e+00  0.000000000000000e+00  0.000000000000000e+00  0.000000000000000e+00  1.811000000000000e+10  0.000000000000000e+00
 0.000000000000000e+00  0.000000000000000e+00  0.000000000000000e+00  0.000000000000000e+00  0.000000000000000e+00  5.564400000000000e+09

 6.789349999999999e+02  0.000000000000000e+00  0.000000000000000e+00  0.000000000000000e+00  0.000000000000000e+00  0.000000000000000e+00
 0.000000000000000e+00  6.789349999999999e+02  0.000000000000000e+00 -0.000000000000000e+00  0.000000000000000e+00  0.000000000000000e+00
 0.000000000000000e+00  0.000000000000000e+00  6.789349999999999e+02  0.000000000000000e+00  0.000000000000000e+00  0.000000000000000e+00
 0.000000000000000e+00 -0.000000000000000e+00  0.000000000000000e+00  9.730400000000000e+02  0.000000000000000e+00  0.000000000000000e+00
 0.000000000000000e+00  0.000000000000000e+00  0.000000000000000e+00  0.000000000000000e+00  9.728600000000000e+02  0.000000000000000e+00
 0.000000000000000e+00  0.000000000000000e+00  0.000000000000000e+00  0.000000000000000e+00  0.000000000000000e+00  1.945900000000000e+03

 3.250000000000000e-03
 9.729480000000000e+08  0.000000000000000e+00  0.000000000000000e+00  0.000000000000000e+00  0.000000000000000e+00  0.000000000000000e+00
 0.000000000000000e+00  9.729480000000000e+08  0.000000000000000e+00  0.000000000000000e+00  0.000000000000000e+00  0.000000000000000e+00
 0.000000000000000e+00  0.000000000000000e+00  9.729480000000000e+09  0.000000000000000e+00  0.000000000000000e+00  0.000000000000000e+00
 0.000000000000000e+00  0.000000000000000e+00  0.000000000000000e+00  1.811360000000000e+10  0.000000000000000e+00  0.000000000000000e+00
 0.000000000000000e+00  0.000000000000000e+00  0.000000000000000e+00  0.000000000000000e+00  1.811000000000000e+10  0.000000000000000e+00
 0.000000000000000e+00  0.000000000000000e+00  0.000000000000000e+00  0.000000000000000e+00  0.000000000000000e+00  5.564400000000000e+09

 6.789349999999999e+02  0.000000000000000e+00  0.000000000000000e+00  0.000000000000000e+00  0.000000000000000e+00  0.000000000000000e+00
 0.000000000000000e+00  6.789349999999999e+02  0.000000000000000e+00 -0.000000000000000e+00  0.000000000000000e+00  0.000000000000000e+00
 0.000000000000000e+00  0.000000000000000e+00  6.789349999999999e+02  0.000000000000000e+00  0.000000000000000e+00  0.000000000000000e+00
 0.000000000000000e+00 -0.000000000000000e+00  0.000000000000000e+00  9.730400000000000e+02  0.000000000000000e+00  0.000000000000000e+00
 0.000000000000000e+00  0.000000000000000e+00  0.000000000000000e+00  0.000000000000000e+00  9.728600000000000e+02  0.000000000000000e+00
 0.000000000000000e+00  0.000000000000000e+00  0.000000000000000e+00  0.000000000000000e+00  0.000000000000000e+00  1.945900000000000e+03

 1.951000000000000e-02
 1.078950000000000e+09  0.000000000000000e+00  0.000000000000000e+00  0.000000000000000e+00  0.000000000000000e+00  0.000000000000000e+00
 0.000000000000000e+00  1.078950000000000e+09  0.000000000000000e+00  0.000000000000000e+00  0.000000000000000e+00  0.000000000000000e+00
 0.000000000000000e+00  0.000000000000000e+00  1.078950000000000e+10  0.000000000000000e+00  0.000000000000000e+00  0.000000000000000e+00
 0.000000000000000e+00  0.000000000000000e+00  0.000000000000000e+00  1.955860000000000e+10  0.000000000000000e+00  0.000000000000000e+00
 0.000000000000000e+00  0.000000000000000e+00  0.000000000000000e+00  0.000000000000000e+00  1.942490000000000e+10  0.000000000000000e+00
 0.000000000000000e+00  0.000000000000000e+00  0.000000000000000e+00  0.000000000000000e+00  0.000000000000000e+00  5.431590000000000e+09

 7.733630000000001e+02  0.000000000000000e+00  0.000000000000000e+00  0.000000000000000e+00  0.000000000000000e+00  0.000000000000000e+00
 0.000000000000000e+00  7.733630000000001e+02  0.000000000000000e+00 -0.000000000000000e+00  0.000000000000000e+00  0.000000000000000e+00
 0.000000000000000e+00  0.000000000000000e+00  7.733630000000001e+02  0.000000000000000e+00  0.000000000000000e+00  0.000000000000000e+00
 0.000000000000000e+00 -0.000000000000000e+00  0.000000000000000e+00  1.066380000000000e+03  0.000000000000000e+00  0.000000000000000e+00
 0.000000000000000e+00  0.000000000000000e+00  0.000000000000000e+00  0.000000000000000e+00  1.091520000000000e+03  0.000000000000000e+00
 0.000000000000000e+00  0.000000000000000e+00  0.000000000000000e+00  0.000000000000000e+00  0.000000000000000e+00  2.157900000000000e+03

 3.577000000000000e-02
 1.006723000000000e+09  0.000000000000000e+00  0.000000000000000e+00  0.000000000000000e+00  0.000000000000000e+00  0.000000000000000e+00
 0.000000000000000e+00  1.006723000000000e+09  0.000000000000000e+00  0.000000000000000e+00  0.000000000000000e+00  0.000000000000000e+00
 0.000000000000000e+00  0.000000000000000e+00  1.006723000000000e+10  0.000000000000000e+00  0.000000000000000e+00  0.000000000000000e+00
 0.000000000000000e+00  0.000000000000000e+00  0.000000000000000e+00  1.949780000000000e+10  0.000000000000000e+00  0.000000000000000e+00
 0.000000000000000e+00  0.000000000000000e+00  0.000000000000000e+00  0.000000000000000e+00  1.745590000000000e+10  0.000000000000000e+00
 0.000000000000000e+00  0.000000000000000e+00  0.000000000000000e+00  0.000000000000000e+00  0.000000000000000e+00  4.993980000000000e+09

 7.405500000000000e+02  0.000000000000000e+00  0.000000000000000e+00  0.000000000000000e+00  0.000000000000000e+00  0.000000000000000e+00
 0.000000000000000e+00  7.405500000000000e+02  0.000000000000000e+00 -0.000000000000000e+00  0.000000000000000e+00  0.000000000000000e+00
 0.000000000000000e+00  0.000000000000000e+00  7.405500000000000e+02  0.000000000000000e+00  0.000000000000000e+00  0.000000000000000e+00
 0.000000000000000e+00 -0.000000000000000e+00  0.000000000000000e+00  1.047360000000000e+03  0.000000000000000e+00  0.000000000000000e+00
 0.000000000000000e+00  0.000000000000000e+00  0.000000000000000e+00  0.000000000000000e+00  9.660900000000000e+02  0.000000000000000e+00
 0.000000000000000e+00  0.000000000000000e+00  0.000000000000000e+00  0.000000000000000e+00  0.000000000000000e+00  2.013450000000000e+03

 5.203000000000000e-02
 9.867780000000000e+08  0.000000000000000e+00  0.000000000000000e+00  0.000000000000000e+00  0.000000000000000e+00  0.000000000000000e+00
 0.000000000000000e+00  9.867780000000000e+08  0.000000000000000e+00  0.000000000000000e+00  0.000000000000000e+00  0.000000000000000e+00
 0.000000000000000e+00  0.000000000000000e+00  9.867780000000000e+09  0.000000000000000e+00  0.000000000000000e+00  0.000000000000000e+00
 0.000000000000000e+00  0.000000000000000e+00  0.000000000000000e+00  1.978880000000000e+10  0.000000000000000e+00  0.000000000000000e+00
 0.000000000000000e+00  0.000000000000000e+00  0.000000000000000e+00  0.000000000000000e+00  1.528740000000000e+10  0.000000000000000e+00
 0.000000000000000e+00  0.000000000000000e+00  0.000000000000000e+00  0.000000000000000e+00  0.000000000000000e+00  4.666590000000000e+09

 7.400420000000000e+02  0.000000000000000e+00  0.000000000000000e+00  0.000000000000000e+00  0.000000000000000e+00  0.000000000000000e+00
 0.000000000000000e+00  7.400420000000000e+02  0.000000000000000e+00 -0.000000000000000e+00  0.000000000000000e+00  0.000000000000000e+00
 0.000000000000000e+00  0.000000000000000e+00  7.400420000000000e+02  0.000000000000000e+00  0.000000000000000e+00  0.000000000000000e+00
 0.000000000000000e+00 -0.000000000000000e+00  0.000000000000000e+00  1.099750000000000e+03  0.000000000000000e+00  0.000000000000000e+00
 0.000000000000000e+00  0.000000000000000e+00  0.000000000000000e+00  0.000000000000000e+00  8.738099999999999e+02  0.000000000000000e+00
 0.000000000000000e+00  0.000000000000000e+00  0.000000000000000e+00  0.000000000000000e+00  0.000000000000000e+00  1.973560000000000e+03

 6.829000000000000e-02
 7.607860000000000e+08  0.000000000000000e+00  0.000000000000000e+00  0.000000000000000e+00  0.000000000000000e+00  0.000000000000000e+00
 0.000000000000000e+00  7.607860000000000e+08  0.000000000000000e+00  0.000000000000000e+00  0.000000000000000e+00  0.000000000000000e+00
 0.000000000000000e+00  0.000000000000000e+00  7.607860000000000e+09  0.000000000000000e+00  0.000000000000000e+00  0.000000000000000e+00
 0.000000000000000e+00  0.000000000000000e+00  0.000000000000000e+00  1.485850000000000e+10  0.000000000000000e+00  0.000000000000000e+00
 0.000000000000000e+00  0.000000000000000e+00  0.000000000000000e+00  0.000000000000000e+00  1.078240000000000e+10  0.000000000000000e+00
 0.000000000000000e+00  0.000000000000000e+00  0.000000000000000e+00  0.000000000000000e+00  0.000000000000000e+00  3.474710000000000e+09

 5.924960000000000e+02  0.000000000000000e+00  0.000000000000000e+00  0.000000000000000e+00  0.000000000000000e+00  0.000000000000000e+00
 0.000000000000000e+00  5.924960000000000e+02  0.000000000000000e+00 -0.000000000000000e+00  0.000000000000000e+00  0.000000000000000e+00
 0.000000000000000e+00  0.000000000000000e+00  5.924960000000000e+02  0.000000000000000e+00  0.000000000000000e+00  0.000000000000000e+00
 0.000000000000000e+00 -0.000000000000000e+00  0.000000000000000e+00  8.730200000000000e+02  0.000000000000000e+00  0.000000000000000e+00
 0.000000000000000e+00  0.000000000000000e+00  0.000000000000000e+00  0.000000000000000e+00  6.485500000000000e+02  0.000000000000000e+00
 0.000000000000000e+00  0.000000000000000e+00  0.000000000000000e+00  0.000000000000000e+00  0.000000000000000e+00  1.521570000000000e+03

 8.455000000000000e-02
 5.491260000000000e+08  0.000000000000000e+00  0.000000000000000e+00  0.000000000000000e+00  0.000000000000000e+00  0.000000000000000e+00
 0.000000000000000e+00  5.491260000000000e+08  0.000000000000000e+00  0.000000000000000e+00  0.000000000000000e+00  0.000000000000000e+00
 0.000000000000000e+00  0.000000000000000e+00  5.491260000000000e+09  0.000000000000000e+00  0.000000000000000e+00  0.000000000000000e+00
 0.000000000000000e+00  0.000000000000000e+00  0.000000000000000e+00  1.022060000000000e+10  0.000000000000000e+00  0.000000000000000e+00
 0.000000000000000e+00  0.000000000000000e+00  0.000000000000000e+00  0.000000000000000e+00  7.229720000000000e+09  0.000000000000000e+00
 0.000000000000000e+00  0.000000000000000e+00  0.000000000000000e+00  0.000000000000000e+00  0.000000000000000e+00  2.323540000000000e+09

 4.502750000000000e+02  0.000000000000000e+00  0.000000000000000e+00  0.000000000000000e+00  0.000000000000000e+00  0.000000000000000e+00
 0.000000000000000e+00  4.502750000000000e+02  0.000000000000000e+00 -0.000000000000000e+00  0.000000000000000e+00  0.000000000000000e+00
 0.000000000000000e+00  0.000000000000000e+00  4.502750000000000e+02  0.000000000000000e+00  0.000000000000000e+00  0.000000000000000e+00
 0.000000000000000e+00 -0.000000000000000e+00  0.000000000000000e+00  6.414900000000000e+02  0.000000000000000e+00  0.000000000000000e+00
 0.000000000000000e+00  0.000000000000000e+00  0.000000000000000e+00  0.000000000000000e+00  4.567600000000000e+02  0.000000000000000e+00
 0.000000000000000e+00  0.000000000000000e+00  0.000000000000000e+00  0.000000000000000e+00  0.000000000000000e+00  1.098250000000000e+03

 1.008100000000000e-01
 4.971300000000000e+08  0.000000000000000e+00  0.000000000000000e+00  0.000000000000000e+00  0.000000000000000e+00  0.000000000000000e+00
 0.000000000000000e+00  4.971300000000000e+08  0.000000000000000e+00  0.000000000000000e+00  0.000000000000000e+00  0.000000000000000e+00
 0.000000000000000e+00  0.000000000000000e+00  4.971300000000000e+09  0.000000000000000e+00  0.000000000000000e+00  0.000000000000000e+00
 0.000000000000000e+00  0.000000000000000e+00  0.000000000000000e+00  9.144700000000000e+09  0.000000000000000e+00  0.000000000000000e+00
 0.000000000000000e+00  0.000000000000000e+00  0.000000000000000e+00  0.000000000000000e+00  6.309540000000000e+09  0.000000000000000e+00
 0.000000000000000e+00  0.000000000000000e+00  0.000000000000000e+00  0.000000000000000e+00  0.000000000000000e+00  1.907870000000000e+09

 4.240540000000000e+02  0.000000000000000e+00  0.000000000000000e+00  0.000000000000000e+00  0.000000000000000e+00  0.000000000000000e+00
 0.000000000000000e+00  4.240540000000000e+02  0.000000000000000e+00 -0.000000000000000e+00  0.000000000000000e+00  0.000000000000000e+00
 0.000000000000000e+00  0.000000000000000e+00  4.240540000000000e+02  0.000000000000000e+00  0.000000000000000e+00  0.000000000000000e+00
 0.000000000000000e+00 -0.000000000000000e+00  0.000000000000000e+00  5.937300000000000e+02  0.000000000000000e+00  0.000000000000000e+00
 0.000000000000000e+00  0.000000000000000e+00  0.000000000000000e+00  0.000000000000000e+00  4.005300000000000e+02  0.000000000000000e+00
 0.000000000000000e+00  0.000000000000000e+00  0.000000000000000e+00  0.000000000000000e+00  0.000000000000000e+00  9.942600000000000e+02

 1.170700000000000e-01
 4.493950000000000e+08  0.000000000000000e+00  0.000000000000000e+00  0.000000000000000e+00  0.000000000000000e+00  0.000000000000000e+00
 0.000000000000000e+00  4.493950000000000e+08  0.000000000000000e+00  0.000000000000000e+00  0.000000000000000e+00  0.000000000000000e+00
 0.000000000000000e+00  0.000000000000000e+00  4.493950000000000e+09  0.000000000000000e+00  0.000000000000000e+00  0.000000000000000e+00
 0.000000000000000e+00  0.000000000000000e+00  0.000000000000000e+00  8.063160000000000e+09  0.000000000000000e+00  0.000000000000000e+00
 0.000000000000000e+00  0.000000000000000e+00  0.000000000000000e+00  0.000000000000000e+00  5.528360000000000e+09  0.000000000000000e+00
 0.000000000000000e+00  0.000000000000000e+00  0.000000000000000e+00  0.000000000000000e+00  0.000000000000000e+00  1.570360000000000e+09

 4.006380000000000e+02  0.000000000000000e+00  0.000000000000000e+00  0.000000000000000e+00  0.000000000000000e+00  0.000000000000000e+00
 0.000000000000000e+00  4.006380000000000e+02  0.000000000000000e+00 -0.000000000000000e+00  0.000000000000000e+00  0.000000000000000e+00
 0.000000000000000e+00  0.000000000000000e+00  4.006380000000000e+02  0.000000000000000e+00  0.000000000000000e+00  0.000000000000000e+00
 0.000000000000000e+00 -0.000000000000000e+00  0.000000000000000e+00  5.471799999999999e+02  0.000000000000000e+00  0.000000000000000e+00
 0.000000000000000e+00  0.000000000000000e+00  0.000000000000000e+00  0.000000000000000e+00  3.516100000000000e+02  0.000000000000000e+00
 0.000000000000000e+00  0.000000000000000e+00  0.000000000000000e+00  0.000000000000000e+00  0.000000000000000e+00  8.987900000000000e+02

 1.333500000000000e-01
 4.034800000000000e+08  0.000000000000000e+00  0.000000000000000e+00  0.000000000000000e+00  0.000000000000000e+00  0.000000000000000e+00
 0.000000000000000e+00  4.034800000000000e+08  0.000000000000000e+00  0.000000000000000e+00  0.000000000000000e+00  0.000000000000000e+00
 0.000000000000000e+00  0.000000000000000e+00  4.034800000000000e+09  0.000000000000000e+00  0.000000000000000e+00  0.000000000000000e+00
 0.000000000000000e+00  0.000000000000000e+00  0.000000000000000e+00  6.884440000000000e+09  0.000000000000000e+00  0.000000000000000e+00
 0.000000000000000e+00  0.000000000000000e+00  0.000000000000000e+00  0.000000000000000e+00  4.980060000000000e+09  0.000000000000000e+00
 0.000000000000000e+00  0.000000000000000e+00  0.000000000000000e+00  0.000000000000000e+00  0.000000000000000e+00  1.158260000000000e+09

 3.820620000000000e+02  0.000000000000000e+00  0.000000000000000e+00  0.000000000000000e+00  0.000000000000000e+00  0.000000000000000e+00
 0.000000000000000e+00  3.820620000000000e+02  0.000000000000000e+00 -0.000000000000000e+00  0.000000000000000e+00  0.000000000000000e+00
 0.000000000000000e+00  0.000000000000000e+00  3.820620000000000e+02  0.000000000000000e+00  0.000000000000000e+00  0.000000000000000e+00
 0.000000000000000e+00 -0.000000000000000e+00  0.000000000000000e+00  4.908400000000000e+02  0.000000000000000e+00  0.000000000000000e+00
 0.000000000000000e+00  0.000000000000000e+00  0.000000000000000e+00  0.000000000000000e+00  3.161200000000000e+02  0.000000000000000e+00
 0.000000000000000e+00  0.000000000000000e+00  0.000000000000000e+00  0.000000000000000e+00  0.000000000000000e+00  8.069600000000000e+02

 1.495900000000000e-01
 4.037290000000000e+08  0.000000000000000e+00  0.000000000000000e+00  0.000000000000000e+00  0.000000000000000e+00  0.000000000000000e+00
 0.000000000000000e+00  4.037290000000000e+08  0.000000000000000e+00  0.000000000000000e+00  0.000000000000000e+00  0.000000000000000e+00
 0.000000000000000e+00  0.000000000000000e+00  4.037290000000000e+09  0.000000000000000e+00  0.000000000000000e+00  0.000000000000000e+00
 0.000000000000000e+00  0.000000000000000e+00  0.000000000000000e+00  7.009180000000000e+09  0.000000000000000e+00  0.000000000000000e+00
 0.000000000000000e+00  0.000000000000000e+00  0.000000000000000e+00  0.000000000000000e+00  4.936840000000000e+09  0.000000000000000e+00
 0.000000000000000e+00  0.000000000000000e+00  0.000000000000000e+00  0.000000000000000e+00  0.000000000000000e+00  1.002120000000000e+09

 3.996550000000000e+02  0.000000000000000e+00  0.000000000000000e+00  0.000000000000000e+00  0.000000000000000e+00  0.000000000000000e+00
 0.000000000000000e+00  3.996550000000000e+02  0.000000000000000e+00 -0.000000000000000e+00  0.000000000000000e+00  0.000000000000000e+00
 0.000000000000000e+00  0.000000000000000e+00  3.996550000000000e+02  0.000000000000000e+00  0.000000000000000e+00  0.000000000000000e+00
 0.000000000000000e+00 -0.000000000000000e+00  0.000000000000000e+00  5.038600000000000e+02  0.000000000000000e+00  0.000000000000000e+00
 0.000000000000000e+00  0.000000000000000e+00  0.000000000000000e+00  0.000000000000000e+00  3.036000000000000e+02  0.000000000000000e+00
 0.000000000000000e+00  0.000000000000000e+00  0.000000000000000e+00  0.000000000000000e+00  0.000000000000000e+00  8.074600000000000e+02

 1.658500000000000e-01
 4.169720000000000e+08  0.000000000000000e+00  0.000000000000000e+00  0.000000000000000e+00  0.000000000000000e+00  0.000000000000000e+00
 0.000000000000000e+00  4.169720000000000e+08  0.000000000000000e+00  0.000000000000000e+00  0.000000000000000e+00  0.000000000000000e+00
 0.000000000000000e+00  0.000000000000000e+00  4.169720000000000e+09  0.000000000000000e+00  0.000000000000000e+00  0.000000000000000e+00
 0.000000000000000e+00  0.000000000000000e+00  0.000000000000000e+00  7.167680000000000e+09  0.000000000000000e+00  0.000000000000000e+00
 0.000000000000000e+00  0.000000000000000e+00  0.000000000000000e+00  0.000000000000000e+00  4.691660000000000e+09  0.000000000000000e+00
 0.000000000000000e+00  0.000000000000000e+00  0.000000000000000e+00  0.000000000000000e+00  0.000000000000000e+00  8.559000000000000e+08

 4.263210000000000e+02  0.000000000000000e+00  0.000000000000000e+00  0.000000000000000e+00  0.000000000000000e+00  0.000000000000000e+00
 0.000000000000000e+00  4.263210000000000e+02  0.000000000000000e+00 -0.000000000000000e+00  0.000000000000000e+00  0.000000000000000e+00
 0.000000000000000e+00  0.000000000000000e+00  4.263210000000000e+02  0.000000000000000e+00  0.000000000000000e+00  0.000000000000000e+00
 0.000000000000000e+00 -0.000000000000000e+00  0.000000000000000e+00  5.447000000000000e+02  0.000000000000000e+00  0.000000000000000e+00
 0.000000000000000e+00  0.000000000000000e+00  0.000000000000000e+00  0.000000000000000e+00  2.892400000000000e+02  0.000000000000000e+00
 0.000000000000000e+00  0.000000000000000e+00  0.000000000000000e+00  0.000000000000000e+00  0.000000000000000e+00  8.339400000000001e+02

 1.821100000000000e-01
 4.082350000000000e+08  0.000000000000000e+00  0.000000000000000e+00  0.000000000000000e+00  0.000000000000000e+00  0.000000000000000e+00
 0.000000000000000e+00  4.082350000000000e+08  0.000000000000000e+00  0.000000000000000e+00  0.000000000000000e+00  0.000000000000000e+00
 0.000000000000000e+00  0.000000000000000e+00  4.082350000000000e+09  0.000000000000000e+00  0.000000000000000e+00  0.000000000000000e+00
 0.000000000000000e+00  0.000000000000000e+00  0.000000000000000e+00  7.271660000000000e+09  0.000000000000000e+00  0.000000000000000e+00
 0.000000000000000e+00  0.000000000000000e+00  0.000000000000000e+00  0.000000000000000e+00  3.949460000000000e+09  0.000000000000000e+00
 0.000000000000000e+00  0.000000000000000e+00  0.000000000000000e+00  0.000000000000000e+00  0.000000000000000e+00  6.722700000000000e+08

 4.168200000000000e+02  0.000000000000000e+00  0.000000000000000e+00  0.000000000000000e+00  0.000000000000000e+00  0.000000000000000e+00
 0.000000000000000e+00  4.168200000000000e+02  0.000000000000000e+00 -0.000000000000000e+00  0.000000000000000e+00  0.000000000000000e+00
 0.000000000000000e+00  0.000000000000000e+00  4.168200000000000e+02  0.000000000000000e+00  0.000000000000000e+00  0.000000000000000e+00
 0.000000000000000e+00 -0.000000000000000e+00  0.000000000000000e+00  5.699000000000000e+02  0.000000000000000e+00  0.000000000000000e+00
 0.000000000000000e+00  0.000000000000000e+00  0.000000000000000e+00  0.000000000000000e+00  2.465700000000000e+02  0.000000000000000e+00
 0.000000000000000e+00  0.000000000000000e+00  0.000000000000000e+00  0.000000000000000e+00  0.000000000000000e+00  8.164700000000000e+02

 1.983700000000000e-01
 4.085970000000000e+08  0.000000000000000e+00  0.000000000000000e+00  0.000000000000000e+00  0.000000000000000e+00  0.000000000000000e+00
 0.000000000000000e+00  4.085970000000000e+08  0.000000000000000e+00  0.000000000000000e+00  0.000000000000000e+00  0.000000000000000e+00
 0.000000000000000e+00  0.000000000000000e+00  4.085970000000000e+09  0.000000000000000e+00  0.000000000000000e+00  0.000000000000000e+00
 0.000000000000000e+00  0.000000000000000e+00  0.000000000000000e+00  7.081700000000000e+09  0.000000000000000e+00  0.000000000000000e+00
 0.000000000000000e+00  0.000000000000000e+00  0.000000000000000e+00  0.000000000000000e+00  3.386520000000000e+09  0.000000000000000e+00
 0.000000000000000e+00  0.000000000000000e+00  0.000000000000000e+00  0.000000000000000e+00  0.000000000000000e+00  5.474900000000000e+08

 4.061860000000000e+02  0.000000000000000e+00  0.000000000000000e+00  0.000000000000000e+00  0.000000000000000e+00  0.000000000000000e+00
 0.000000000000000e+00  4.061860000000000e+02  0.000000000000000e+00 -0.000000000000000e+00  0.000000000000000e+00  0.000000000000000e+00
 0.000000000000000e+00  0.000000000000000e+00  4.061860000000000e+02  0.000000000000000e+00  0.000000000000000e+00  0.000000000000000e+00
 0.000000000000000e+00 -0.000000000000000e+00  0.000000000000000e+00  6.012800000000000e+02  0.000000000000000e+00  0.000000000000000e+00
 0.000000000000000e+00  0.000000000000000e+00  0.000000000000000e+00  0.000000000000000e+00  2.159100000000000e+02  0.000000000000000e+00
 0.000000000000000e+00  0.000000000000000e+00  0.000000000000000e+00  0.000000000000000e+00  0.000000000000000e+00  8.171900000000001e+02

 2.146500000000000e-01
 3.668340000000000e+08  0.000000000000000e+00  0.000000000000000e+00  0.000000000000000e+00  0.000000000000000e+00  0.000000000000000e+00
 0.000000000000000e+00  3.668340000000000e+08  0.000000000000000e+00  0.000000000000000e+00  0.000000000000000e+00  0.000000000000000e+00
 0.000000000000000e+00  0.000000000000000e+00  3.668340000000000e+09  0.000000000000000e+00  0.000000000000000e+00  0.000000000000000e+00
 0.000000000000000e+00  0.000000000000000e+00  0.000000000000000e+00  6.244530000000000e+09  0.000000000000000e+00  0.000000000000000e+00
 0.000000000000000e+00  0.000000000000000e+00  0.000000000000000e+00  0.000000000000000e+00  2.933740000000000e+09  0.000000000000000e+00
 0.000000000000000e+00  0.000000000000000e+00  0.000000000000000e+00  0.000000000000000e+00  0.000000000000000e+00  4.488400000000000e+08

 3.814200000000000e+02  0.000000000000000e+00  0.000000000000000e+00  0.000000000000000e+00  0.000000000000000e+00  0.000000000000000e+00
 0.000000000000000e+00  3.814200000000000e+02  0.000000000000000e+00 -0.000000000000000e+00  0.000000000000000e+00  0.000000000000000e+00
 0.000000000000000e+00  0.000000000000000e+00  3.814200000000000e+02  0.000000000000000e+00  0.000000000000000e+00  0.000000000000000e+00
 0.000000000000000e+00 -0.000000000000000e+00  0.000000000000000e+00  5.465599999999999e+02  0.000000000000000e+00  0.000000000000000e+00
 0.000000000000000e+00  0.000000000000000e+00  0.000000000000000e+00  0.000000000000000e+00  1.871100000000000e+02  0.000000000000000e+00
 0.000000000000000e+00  0.000000000000000e+00  0.000000000000000e+00  0.000000000000000e+00  0.000000000000000e+00  7.336700000000000e+02

 2.308900000000000e-01
 3.147760000000000e+08  0.000000000000000e+00  0.000000000000000e+00  0.000000000000000e+00  0.000000000000000e+00  0.000000000000000e+00
 0.000000000000000e+00  3.147760000000000e+08  0.000000000000000e+00  0.000000000000000e+00  0.000000000000000e+00  0.000000000000000e+00
 0.000000000000000e+00  0.000000000000000e+00  3.147760000000000e+09  0.000000000000000e+00  0.000000000000000e+00  0.000000000000000e+00
 0.000000000000000e+00  0.000000000000000e+00  0.000000000000000e+00  5.048960000000000e+09  0.000000000000000e+00  0.000000000000000e+00
 0.000000000000000e+00  0.000000000000000e+00  0.000000000000000e+00  0.000000000000000e+00  2.568960000000000e+09  0.000000000000000e+00
 0.000000000000000e+00  0.000000000000000e+00  0.000000000000000e+00  0.000000000000000e+00  0.000000000000000e+00  3.359200000000000e+08

 3.528220000000000e+02  0.000000000000000e+00  0.000000000000000e+00  0.000000000000000e+00  0.000000000000000e+00  0.000000000000000e+00
 0.000000000000000e+00  3.528220000000000e+02  0.000000000000000e+00 -0.000000000000000e+00  0.000000000000000e+00  0.000000000000000e+00
 0.000000000000000e+00  0.000000000000000e+00  3.528220000000000e+02  0.000000000000000e+00  0.000000000000000e+00  0.000000000000000e+00
 0.000000000000000e+00 -0.000000000000000e+00  0.000000000000000e+00  4.687100000000000e+02  0.000000000000000e+00  0.000000000000000e+00
 0.000000000000000e+00  0.000000000000000e+00  0.000000000000000e+00  0.000000000000000e+00  1.608400000000000e+02  0.000000000000000e+00
 0.000000000000000e+00  0.000000000000000e+00  0.000000000000000e+00  0.000000000000000e+00  0.000000000000000e+00  6.295500000000000e+02

 2.471500000000000e-01
 3.011580000000000e+08  0.000000000000000e+00  0.000000000000000e+00  0.000000000000000e+00  0.000000000000000e+00  0.000000000000000e+00
 0.000000000000000e+00  3.011580000000000e+08  0.000000000000000e+00  0.000000000000000e+00  0.000000000000000e+00  0.000000000000000e+00
 0.000000000000000e+00  0.000000000000000e+00  3.011580000000000e+09  0.000000000000000e+00  0.000000000000000e+00  0.000000000000000e+00
 0.000000000000000e+00  0.000000000000000e+00  0.000000000000000e+00  4.948490000000000e+09  0.000000000000000e+00  0.000000000000000e+00
 0.000000000000000e+00  0.000000000000000e+00  0.000000000000000e+00  0.000000000000000e+00  2.388650000000000e+09  0.000000000000000e+00
 0.000000000000000e+00  0.000000000000000e+00  0.000000000000000e+00  0.000000000000000e+00  0.000000000000000e+00  3.113500000000000e+08

 3.494770000000000e+02  0.000000000000000e+00  0.000000000000000e+00  0.000000000000000e+00  0.000000000000000e+00  0.000000000000000e+00
 0.000000000000000e+00  3.494770000000000e+02  0.000000000000000e+00 -0.000000000000000e+00  0.000000000000000e+00  0.000000000000000e+00
 0.000000000000000e+00  0.000000000000000e+00  3.494770000000000e+02  0.000000000000000e+00  0.000000000000000e+00  0.000000000000000e+00
 0.000000000000000e+00 -0.000000000000000e+00  0.000000000000000e+00  4.537600000000000e+02  0.000000000000000e+00  0.000000000000000e+00
 0.000000000000000e+00  0.000000000000000e+00  0.000000000000000e+00  0.000000000000000e+00  1.485600000000000e+02  0.000000000000000e+00
 0.000000000000000e+00  0.000000000000000e+00  0.000000000000000e+00  0.000000000000000e+00  0.000000000000000e+00  6.023200000000001e+02

 2.634100000000000e-01
 2.882620000000000e+08  0.000000000000000e+00  0.000000000000000e+00  0.000000000000000e+00  0.000000000000000e+00  0.000000000000000e+00
 0.000000000000000e+00  2.882620000000000e+08  0.000000000000000e+00  0.000000000000000e+00  0.000000000000000e+00  0.000000000000000e+00
 0.000000000000000e+00  0.000000000000000e+00  2.882620000000000e+09  0.000000000000000e+00  0.000000000000000e+00  0.000000000000000e+00
 0.000000000000000e+00  0.000000000000000e+00  0.000000000000000e+00  4.808020000000000e+09  0.000000000000000e+00  0.000000000000000e+00
 0.000000000000000e+00  0.000000000000000e+00  0.000000000000000e+00  0.000000000000000e+00  2.271990000000000e+09  0.000000000000000e+00